Version 4
SHEET 1 944 680
WIRE 176 -592 -48 -592
WIRE 176 -464 176 -592
WIRE -48 -432 -48 -592
WIRE -48 -288 -48 -352
WIRE 176 -288 176 -384
WIRE 176 -288 160 -288
WIRE 784 -288 176 -288
WIRE 176 -240 176 -288
WIRE 784 -240 784 -288
WIRE 128 -224 32 -224
WIRE 32 -208 32 -224
WIRE 128 -176 112 -176
WIRE 32 -112 32 -128
WIRE 112 -112 112 -176
WIRE 112 -112 32 -112
WIRE 176 -112 176 -160
WIRE 176 -112 112 -112
WIRE 176 -80 176 -112
WIRE 784 -80 784 -176
FLAG 176 -80 0
FLAG 784 -80 0
FLAG -48 -288 0
SYMBOL sw 176 -144 M180
SYMATTR InstName S1
SYMATTR Value Open_Drain
SYMBOL voltage 32 -224 R0
WINDOW 3 -371 140 Left 2
WINDOW 123 0 0 Left 0
WINDOW 39 0 0 Left 0
SYMATTR InstName V1
SYMATTR Value PULSE(0 5 0 10n 10n {.5*i2c_per} {i2c_per})
SYMBOL cap 768 -240 R0
SYMATTR InstName C1
SYMATTR Value 10n
SYMBOL voltage -48 -448 R0
WINDOW 123 0 0 Left 0
WINDOW 39 0 0 Left 0
SYMATTR InstName V2
SYMATTR Value 3.3
SYMBOL res 160 -480 R0
SYMATTR InstName R2
SYMATTR Value 1k
TEXT 520 -496 Left 2 !.param i2c_fm=400k i2c_per={1/i2c_fm}
TEXT -336 -48 Left 2 !.tran {10*i2c_per}
TEXT -208 8 Left 2 !.model Open_Drain SW(Ron = 1m Roff= 100Meg Vt=2 Vh = 0)
